Version 4
SHEET 1 2180 680
WIRE 1040 -16 880 -16
WIRE 1264 -16 1104 -16
WIRE 384 64 368 64
WIRE 480 64 464 64
WIRE -128 96 -160 96
WIRE 16 96 -48 96
WIRE 160 96 16 96
WIRE 304 96 160 96
WIRE 368 96 368 64
WIRE 368 96 304 96
WIRE 480 96 480 64
WIRE 496 96 480 96
WIRE 672 96 576 96
WIRE 704 96 672 96
WIRE 800 96 784 96
WIRE 880 96 880 -16
WIRE 880 96 800 96
WIRE 976 96 880 96
WIRE 1264 96 1264 -16
WIRE 1264 96 1232 96
WIRE 1392 96 1264 96
WIRE 1488 96 1392 96
WIRE 1632 96 1488 96
WIRE 1776 96 1712 96
WIRE 880 112 880 96
WIRE 1264 112 1264 96
WIRE 1776 112 1776 96
WIRE 368 128 368 96
WIRE 464 128 448 128
WIRE 480 128 480 96
WIRE 480 128 464 128
WIRE 160 144 160 96
WIRE 1392 144 1392 96
WIRE 1488 144 1488 96
WIRE 672 160 672 96
WIRE 800 160 800 96
WIRE 128 176 96 176
WIRE 160 176 160 144
WIRE -160 192 -160 176
WIRE 304 192 304 176
WIRE 304 192 288 192
WIRE 336 192 304 192
WIRE 384 192 384 176
WIRE 384 192 336 192
WIRE 880 192 880 176
WIRE 16 208 16 176
WIRE 16 208 -16 208
WIRE 128 208 16 208
WIRE 304 224 304 192
WIRE 1104 224 1104 192
WIRE 1264 224 1264 192
WIRE 1264 224 1104 224
WIRE 1776 224 1776 176
WIRE -160 304 -160 272
WIRE 16 304 16 272
WIRE 16 304 -160 304
WIRE 144 304 144 240
WIRE 144 304 16 304
WIRE 160 304 160 240
WIRE 160 304 144 304
WIRE 304 304 304 288
WIRE 304 304 160 304
WIRE 672 304 672 224
WIRE 672 304 304 304
WIRE 704 304 672 304
WIRE 800 304 800 224
WIRE 800 304 784 304
WIRE 880 304 880 272
WIRE 880 304 800 304
WIRE 1024 304 880 304
WIRE 1392 304 1392 208
WIRE 1392 304 1024 304
WIRE 1488 304 1488 208
WIRE 1488 304 1392 304
WIRE 1600 304 1488 304
WIRE -160 320 -160 304
WIRE 1776 336 1776 304
FLAG -160 320 0
FLAG 1488 96 Vout
FLAG 96 176 Vout
FLAG 336 192 Vg
FLAG 16 96 Vsource
FLAG 800 96 VinB
FLAG 1264 224 Vfb
FLAG -16 208 Vth
FLAG 672 96 VinA
FLAG 1776 416 0
SYMBOL cap 656 160 R0
SYMATTR InstName C1
SYMATTR Value 10µ
SYMBOL cap 784 160 R0
SYMATTR InstName C2
SYMATTR Value 1µ
SYMBOL cap 864 112 R0
SYMATTR InstName C3
SYMATTR Value 10µ
SYMBOL res 864 176 R0
SYMATTR InstName R1
SYMATTR Value 1.6
SYMBOL ind 800 80 R90
WINDOW 0 5 56 VBottom 2
WINDOW 3 32 56 VTop 2
SYMATTR InstName L1
SYMATTR Value 2.7µ
SYMATTR SpiceLine Rser=0.050
SYMBOL PowerProducts\\LT1084 1104 96 R0
WINDOW 0 -118 -64 Bottom 2
WINDOW 3 42 -78 Left 2
SYMATTR InstName U1
SYMBOL voltage -160 176 R0
WINDOW 0 -65 55 Left 2
WINDOW 3 -61 76 Left 2
WINDOW 123 0 0 Left 0
WINDOW 39 0 0 Left 0
SYMATTR InstName V1
SYMATTR Value 27
SYMBOL voltage -160 80 R0
WINDOW 0 -86 77 Left 2
WINDOW 3 -86 98 Left 2
WINDOW 123 0 0 Left 0
WINDOW 39 0 0 Left 0
SYMATTR InstName V2
SYMATTR Value SINE(0.5 1 400k)
SYMBOL cap 1376 144 R0
SYMATTR InstName C4
SYMATTR Value 680µ
SYMBOL cap 1472 144 R0
SYMATTR InstName C5
SYMATTR Value 680µ
SYMBOL res 1248 96 R0
SYMATTR InstName R2
SYMATTR Value 160
SYMBOL schottky 1104 -32 R90
WINDOW 0 17 64 VBottom 2
WINDOW 3 -10 -30 VTop 2
SYMATTR InstName D1
SYMATTR Value 1N5819
SYMATTR Description Diode
SYMATTR Type diode
SYMBOL res 1120 208 R90
WINDOW 0 15 105 VBottom 2
WINDOW 3 -18 -17 VTop 2
SYMATTR InstName R3
SYMATTR Value 3000
SYMBOL res 1040 320 R180
WINDOW 0 36 76 Left 2
WINDOW 3 36 40 Left 2
SYMATTR InstName R4
SYMATTR Value 43
SYMBOL pmos 464 176 M270
WINDOW 0 18 -28 VRight 2
WINDOW 3 -3 -53 VRight 2
SYMATTR InstName M1
SYMATTR Value HAT1072H
SYMBOL res 480 48 R90
WINDOW 0 0 85 VBottom 2
WINDOW 3 -29 40 VTop 2
SYMATTR InstName R5
SYMATTR Value 47
SYMBOL Comparators\\LT1011 160 192 R0
WINDOW 0 -37 60 Left 2
WINDOW 3 -36 80 Left 2
SYMATTR InstName U2
SYMBOL cap 288 224 R0
SYMATTR InstName C6
SYMATTR Value 10n
SYMBOL res 288 80 R0
WINDOW 0 -27 35 Left 2
WINDOW 3 -41 59 Left 2
SYMATTR InstName R7
SYMATTR Value 50k
SYMBOL res -32 80 R90
WINDOW 0 0 56 VBottom 2
WINDOW 3 32 56 VTop 2
SYMATTR InstName R6
SYMATTR Value 50m
SYMBOL res 192 208 R270
WINDOW 0 -14 27 VTop 2
WINDOW 3 -5 32 VBottom 2
SYMATTR InstName R8
SYMATTR Value 27k
SYMBOL zener 32 272 R180
WINDOW 0 44 31 Left 2
WINDOW 3 76 7 Right 2
SYMATTR InstName D4
SYMATTR Value BZX84B18VL
SYMBOL res 0 80 R0
WINDOW 0 36 36 Left 2
WINDOW 3 36 57 Left 2
SYMATTR InstName R9
SYMATTR Value 50k
SYMBOL res 800 288 R90
WINDOW 0 0 56 VBottom 2
WINDOW 3 32 56 VTop 2
SYMATTR InstName SENSE
SYMATTR Value 0.001
SYMBOL ind 592 80 R90
WINDOW 0 5 56 VBottom 2
WINDOW 3 32 56 VTop 2
SYMATTR InstName L2
SYMATTR Value 2.7µ
SYMATTR SpiceLine Rser=0.050
SYMBOL res 1728 80 R90
WINDOW 0 0 56 VBottom 2
WINDOW 3 32 56 VTop 2
SYMATTR InstName R10
SYMATTR Value 2
SYMBOL voltage 1776 320 R0
WINDOW 123 0 0 Left 0
WINDOW 39 0 0 Left 0
SYMATTR InstName V3
SYMATTR Value PULSE(0 25 0 10n 10n 2.5u 5u)
SYMBOL schottky 1760 112 R0
SYMATTR InstName D2
SYMATTR Value 1N5819
SYMATTR Description Diode
SYMATTR Type diode
SYMBOL voltage 1776 208 R0
WINDOW 123 0 0 Left 0
WINDOW 39 0 0 Left 0
SYMATTR InstName V4
SYMATTR Value PULSE(0 25 0 10n 10n 100m 1s)
TEXT 1048 272 Left 2 ;100R Trim
TEXT -42 352 Left 2 !.tran 0 140m 1m 0.1m uic
TEXT 528 144 VRight 2 ;Prevents C1 Ringing\nAfter, M1 Conducts.
